<?xml version='1.0' encoding='UTF-8'?>
<configuration xmlns:xsi="http://www.w3.org/2001/XMLSchema-instance" xsi:noNamespaceSchemaLocation="http://sumo.dlr.de/xsd/sumoConfiguration.xsd">
  <input>
    <net-file value="merge_20200531-2141171590941477.0889106.net.xml"/>
    <route-files value="merge_20200531-2141171590941477.0889106.rou.xml"/>
    <additional-files value="merge_20200531-2141171590941477.0889106.add.xml"/>
    <gui-settings-file value="merge_20200531-2141171590941477.0889106.gui.cfg"/>
  </input>
  <time>
    <begin value="0"/>
  </time>
</configuration>
