<?xml version="1.0" encoding="UTF-8"?>

<!-- generated on Mon Jun  1 00:35:31 2020 by Eclipse SUMO netconvert Version v1_1_0+0000-2147d155b1
<configuration xmlns:xsi="http://www.w3.org/2001/XMLSchema-instance" xsi:noNamespaceSchemaLocation="http://sumo.dlr.de/xsd/netconvertConfiguration.xsd">

    <input>
        <node-files value="/home/mayank/Documents/flow/flow/core/kernel/network/debug/net/merge_20200601-0035311590951931.8583767.nod.xml"/>
        <edge-files value="/home/mayank/Documents/flow/flow/core/kernel/network/debug/net/merge_20200601-0035311590951931.8583767.edg.xml"/>
        <type-files value="/home/mayank/Documents/flow/flow/core/kernel/network/debug/net/merge_20200601-0035311590951931.8583767.typ.xml"/>
    </input>

    <output>
        <output-file value="/home/mayank/Documents/flow/flow/core/kernel/network/debug/cfg/merge_20200601-0035311590951931.8583767.net.xml"/>
    </output>

    <junctions>
        <no-internal-links value="false"/>
        <no-turnarounds value="true"/>
    </junctions>

</configuration>
-->

<net version="1.1" junctionCornerDetail="5" limitTurnSpeed="5.50" xmlns:xsi="http://www.w3.org/2001/XMLSchema-instance" xsi:noNamespaceSchemaLocation="http://sumo.dlr.de/xsd/net_file.xsd">

    <location netOffset="400.00,70.71" convBoundary="0.00,0.00,800.00,141.42" origBoundary="-400.00,-70.71,400.00,70.71" projParameter="!"/>

    <type id="highwayType" numLanes="4" speed="30.00"/>
    <type id="mergeType" numLanes="3" speed="30.00"/>

    <edge id=":node_2_0" function="internal">
        <lane id=":node_2_0_0" index="0" speed="12.22" length="13.79" shape="191.69,51.08 195.52,54.77 198.59,57.40 200.89,58.98 202.43,59.51"/>
    </edge>
    <edge id=":node_2_1" function="internal">
        <lane id=":node_2_1_0" index="0" speed="13.47" length="16.85" shape="189.42,53.34 192.72,57.20 195.05,60.15 197.82,62.04 202.43,62.71"/>
    </edge>
    <edge id=":node_2_2" function="internal">
        <lane id=":node_2_2_0" index="0" speed="14.18" length="18.73" shape="187.16,55.61 191.98,60.12 196.13,63.33 199.61,65.27 202.43,65.91"/>
    </edge>
    <edge id=":node_2_3" function="internal">
        <lane id=":node_2_3_0" index="0" speed="30.00" length="16.89" shape="185.54,59.51 202.43,59.51"/>
        <lane id=":node_2_3_1" index="1" speed="30.00" length="16.89" shape="185.54,62.71 202.43,62.71"/>
        <lane id=":node_2_3_2" index="2" speed="30.00" length="16.89" shape="185.54,65.91 202.43,65.91"/>
        <lane id=":node_2_3_3" index="3" speed="30.00" length="16.89" shape="185.54,69.11 202.43,69.11"/>
    </edge>
    <edge id=":node_3_0" function="internal">
        <lane id=":node_3_0_0" index="0" speed="30.00" length="0.10" shape="400.00,59.51 400.00,59.51"/>
        <lane id=":node_3_0_1" index="1" speed="30.00" length="0.10" shape="400.00,62.71 400.00,62.71"/>
        <lane id=":node_3_0_2" index="2" speed="30.00" length="0.10" shape="400.00,65.91 400.00,65.91"/>
        <lane id=":node_3_0_3" index="3" speed="30.00" length="0.10" shape="400.00,69.11 400.00,69.11"/>
    </edge>
    <edge id=":node_5_0" function="internal">
        <lane id=":node_5_0_0" index="0" speed="30.00" length="16.89" shape="584.77,59.51 601.66,59.51"/>
        <lane id=":node_5_0_1" index="1" speed="30.00" length="16.89" shape="584.77,62.71 601.66,62.71"/>
        <lane id=":node_5_0_2" index="2" speed="30.00" length="16.89" shape="584.77,65.91 601.66,65.91"/>
        <lane id=":node_5_0_3" index="3" speed="30.00" length="16.89" shape="584.77,69.11 601.66,69.11"/>
    </edge>
    <edge id=":node_5_4" function="internal">
        <lane id=":node_5_4_0" index="0" speed="14.18" length="18.73" shape="586.38,73.01 591.20,68.51 595.35,65.29 598.84,63.35 601.66,62.71"/>
    </edge>
    <edge id=":node_5_5" function="internal">
        <lane id=":node_5_5_0" index="0" speed="13.23" length="16.25" shape="588.65,75.28 592.97,71.18 596.58,68.25 599.48,66.50 601.66,65.91"/>
    </edge>
    <edge id=":node_5_6" function="internal">
        <lane id=":node_5_6_0" index="0" speed="12.22" length="13.79" shape="590.91,77.54 594.74,73.85 597.81,71.22 600.12,69.64 601.66,69.11"/>
    </edge>

    <edge id="highway_0" from="node_1" to="node_2" priority="-1" type="highwayType" length="200.00">
        <lane id="highway_0_0" index="0" speed="30.00" length="200.00" shape="0.00,59.51 185.54,59.51"/>
        <lane id="highway_0_1" index="1" speed="30.00" length="200.00" shape="0.00,62.71 185.54,62.71"/>
        <lane id="highway_0_2" index="2" speed="30.00" length="200.00" shape="0.00,65.91 185.54,65.91"/>
        <lane id="highway_0_3" index="3" speed="30.00" length="200.00" shape="0.00,69.11 185.54,69.11"/>
    </edge>
    <edge id="highway_1" from="node_2" to="node_3" priority="-1" type="highwayType" length="200.00">
        <lane id="highway_1_0" index="0" speed="30.00" length="200.00" shape="202.43,59.51 400.00,59.51"/>
        <lane id="highway_1_1" index="1" speed="30.00" length="200.00" shape="202.43,62.71 400.00,62.71"/>
        <lane id="highway_1_2" index="2" speed="30.00" length="200.00" shape="202.43,65.91 400.00,65.91"/>
        <lane id="highway_1_3" index="3" speed="30.00" length="200.00" shape="202.43,69.11 400.00,69.11"/>
    </edge>
    <edge id="highway_2" from="node_3" to="node_5" priority="-1" type="highwayType" length="200.00">
        <lane id="highway_2_0" index="0" speed="30.00" length="200.00" shape="400.00,59.51 584.77,59.51"/>
        <lane id="highway_2_1" index="1" speed="30.00" length="200.00" shape="400.00,62.71 584.77,62.71"/>
        <lane id="highway_2_2" index="2" speed="30.00" length="200.00" shape="400.00,65.91 584.77,65.91"/>
        <lane id="highway_2_3" index="3" speed="30.00" length="200.00" shape="400.00,69.11 584.77,69.11"/>
    </edge>
    <edge id="highway_3" from="node_5" to="node_6" priority="-1" type="highwayType" length="200.00">
        <lane id="highway_3_0" index="0" speed="30.00" length="200.00" acceleration="1" shape="601.66,59.51 800.00,59.51"/>
        <lane id="highway_3_1" index="1" speed="30.00" length="200.00" shape="601.66,62.71 800.00,62.71"/>
        <lane id="highway_3_2" index="2" speed="30.00" length="200.00" shape="601.66,65.91 800.00,65.91"/>
        <lane id="highway_3_3" index="3" speed="30.00" length="200.00" shape="601.66,69.11 800.00,69.11"/>
    </edge>
    <edge id="merge_one" from="node_4" to="node_2" priority="-1" type="mergeType" length="100.00">
        <lane id="merge_one_0" index="0" speed="30.00" length="100.00" shape="134.95,-5.66 191.69,51.08"/>
        <lane id="merge_one_1" index="1" speed="30.00" length="100.00" shape="132.68,-3.39 189.42,53.34"/>
        <lane id="merge_one_2" index="2" speed="30.00" length="100.00" shape="130.42,-1.13 187.16,55.61"/>
    </edge>
    <edge id="merge_two" from="node_7" to="node_5" priority="-1" type="mergeType" length="100.00">
        <lane id="merge_two_0" index="0" speed="30.00" length="100.00" shape="523.63,135.76 586.38,73.01"/>
        <lane id="merge_two_1" index="1" speed="30.00" length="100.00" shape="525.90,138.03 588.65,75.28"/>
        <lane id="merge_two_2" index="2" speed="30.00" length="100.00" shape="528.16,140.29 590.91,77.54"/>
    </edge>

    <junction id="node_1" type="dead_end" x="0.00" y="70.71" incLanes="" intLanes="" shape="0.00,70.71 0.00,57.91"/>
    <junction id="node_2" type="priority" x="200.00" y="70.71" incLanes="merge_one_0 merge_one_1 merge_one_2 highway_0_0 highway_0_1 highway_0_2 highway_0_3" intLanes=":node_2_0_0 :node_2_1_0 :node_2_2_0 :node_2_3_0 :node_2_3_1 :node_2_3_2 :node_2_3_3" shape="202.43,70.71 202.43,57.91 200.63,57.03 199.20,55.92 197.42,54.37 195.29,52.38 192.82,49.95 186.03,56.74 186.50,57.39 186.49,57.62 186.33,57.78 186.02,57.88 185.54,57.91 185.54,70.71">
        <request index="0" response="1111000" foes="1111000" cont="0"/>
        <request index="1" response="1111000" foes="1111000" cont="0"/>
        <request index="2" response="1111000" foes="1111000" cont="0"/>
        <request index="3" response="0000000" foes="0000111" cont="0"/>
        <request index="4" response="0000000" foes="0000111" cont="0"/>
        <request index="5" response="0000000" foes="0000111" cont="0"/>
        <request index="6" response="0000000" foes="0000111" cont="0"/>
    </junction>
    <junction id="node_3" type="priority" x="400.00" y="70.71" incLanes="highway_1_0 highway_1_1 highway_1_2 highway_1_3" intLanes=":node_3_0_0 :node_3_0_1 :node_3_0_2 :node_3_0_3" shape="400.00,70.71 400.00,57.91 400.00,70.71">
        <request index="0" response="0000" foes="0000" cont="0"/>
        <request index="1" response="0000" foes="0000" cont="0"/>
        <request index="2" response="0000" foes="0000" cont="0"/>
        <request index="3" response="0000" foes="0000" cont="0"/>
    </junction>
    <junction id="node_4" type="dead_end" x="129.29" y="0.00" incLanes="" intLanes="" shape="129.29,0.00 136.08,-6.79"/>
    <junction id="node_5" type="priority" x="600.00" y="70.71" incLanes="highway_2_0 highway_2_1 highway_2_2 highway_2_3 merge_two_0 merge_two_1 merge_two_2" intLanes=":node_5_0_0 :node_5_0_1 :node_5_0_2 :node_5_0_3 :node_5_4_0 :node_5_5_0 :node_5_6_0" shape="601.66,70.71 601.66,57.91 584.77,57.91 584.77,70.71 585.56,70.84 585.72,71.00 585.72,71.23 585.56,71.52 585.25,71.88 592.04,78.67 594.52,76.24 596.65,74.25 598.42,72.70 599.85,71.60 600.93,70.93">
        <request index="0" response="0000000" foes="1110000" cont="0"/>
        <request index="1" response="0000000" foes="1110000" cont="0"/>
        <request index="2" response="0000000" foes="1110000" cont="0"/>
        <request index="3" response="0000000" foes="1110000" cont="0"/>
        <request index="4" response="0001111" foes="0001111" cont="0"/>
        <request index="5" response="0001111" foes="0001111" cont="0"/>
        <request index="6" response="0001111" foes="0001111" cont="0"/>
    </junction>
    <junction id="node_6" type="dead_end" x="800.00" y="70.71" incLanes="highway_3_0 highway_3_1 highway_3_2 highway_3_3" intLanes="" shape="800.00,57.91 800.00,70.71"/>
    <junction id="node_7" type="dead_end" x="529.29" y="141.42" incLanes="" intLanes="" shape="529.29,141.42 522.50,134.63"/>

    <connection from="highway_0" to="highway_1" fromLane="0" toLane="0" via=":node_2_3_0" dir="s" state="M"/>
    <connection from="highway_0" to="highway_1" fromLane="1" toLane="1" via=":node_2_3_1" dir="s" state="M"/>
    <connection from="highway_0" to="highway_1" fromLane="2" toLane="2" via=":node_2_3_2" dir="s" state="M"/>
    <connection from="highway_0" to="highway_1" fromLane="3" toLane="3" via=":node_2_3_3" dir="s" state="M"/>
    <connection from="highway_1" to="highway_2" fromLane="0" toLane="0" via=":node_3_0_0" dir="s" state="M"/>
    <connection from="highway_1" to="highway_2" fromLane="1" toLane="1" via=":node_3_0_1" dir="s" state="M"/>
    <connection from="highway_1" to="highway_2" fromLane="2" toLane="2" via=":node_3_0_2" dir="s" state="M"/>
    <connection from="highway_1" to="highway_2" fromLane="3" toLane="3" via=":node_3_0_3" dir="s" state="M"/>
    <connection from="highway_2" to="highway_3" fromLane="0" toLane="0" via=":node_5_0_0" dir="s" state="M"/>
    <connection from="highway_2" to="highway_3" fromLane="1" toLane="1" via=":node_5_0_1" dir="s" state="M"/>
    <connection from="highway_2" to="highway_3" fromLane="2" toLane="2" via=":node_5_0_2" dir="s" state="M"/>
    <connection from="highway_2" to="highway_3" fromLane="3" toLane="3" via=":node_5_0_3" dir="s" state="M"/>
    <connection from="merge_one" to="highway_1" fromLane="0" toLane="0" via=":node_2_0_0" dir="r" state="m"/>
    <connection from="merge_one" to="highway_1" fromLane="1" toLane="1" via=":node_2_1_0" dir="r" state="m"/>
    <connection from="merge_one" to="highway_1" fromLane="2" toLane="2" via=":node_2_2_0" dir="r" state="m"/>
    <connection from="merge_two" to="highway_3" fromLane="0" toLane="1" via=":node_5_4_0" dir="l" state="m"/>
    <connection from="merge_two" to="highway_3" fromLane="1" toLane="2" via=":node_5_5_0" dir="l" state="m"/>
    <connection from="merge_two" to="highway_3" fromLane="2" toLane="3" via=":node_5_6_0" dir="l" state="m"/>

    <connection from=":node_2_0" to="highway_1" fromLane="0" toLane="0" dir="r" state="M"/>
    <connection from=":node_2_1" to="highway_1" fromLane="0" toLane="1" dir="r" state="M"/>
    <connection from=":node_2_2" to="highway_1" fromLane="0" toLane="2" dir="r" state="M"/>
    <connection from=":node_2_3" to="highway_1" fromLane="0" toLane="0" dir="s" state="M"/>
    <connection from=":node_2_3" to="highway_1" fromLane="1" toLane="1" dir="s" state="M"/>
    <connection from=":node_2_3" to="highway_1" fromLane="2" toLane="2" dir="s" state="M"/>
    <connection from=":node_2_3" to="highway_1" fromLane="3" toLane="3" dir="s" state="M"/>
    <connection from=":node_3_0" to="highway_2" fromLane="0" toLane="0" dir="s" state="M"/>
    <connection from=":node_3_0" to="highway_2" fromLane="1" toLane="1" dir="s" state="M"/>
    <connection from=":node_3_0" to="highway_2" fromLane="2" toLane="2" dir="s" state="M"/>
    <connection from=":node_3_0" to="highway_2" fromLane="3" toLane="3" dir="s" state="M"/>
    <connection from=":node_5_0" to="highway_3" fromLane="0" toLane="0" dir="s" state="M"/>
    <connection from=":node_5_0" to="highway_3" fromLane="1" toLane="1" dir="s" state="M"/>
    <connection from=":node_5_0" to="highway_3" fromLane="2" toLane="2" dir="s" state="M"/>
    <connection from=":node_5_0" to="highway_3" fromLane="3" toLane="3" dir="s" state="M"/>
    <connection from=":node_5_4" to="highway_3" fromLane="0" toLane="1" dir="l" state="M"/>
    <connection from=":node_5_5" to="highway_3" fromLane="0" toLane="2" dir="l" state="M"/>
    <connection from=":node_5_6" to="highway_3" fromLane="0" toLane="3" dir="l" state="M"/>

</net>
