<?xml version="1.0" encoding="UTF-8"?>

<!-- generated on Sun May 31 01:53:52 2020 by Eclipse SUMO netconvert Version v1_1_0+0000-2147d155b1
<configuration xmlns:xsi="http://www.w3.org/2001/XMLSchema-instance" xsi:noNamespaceSchemaLocation="http://sumo.dlr.de/xsd/netconvertConfiguration.xsd">

    <input>
        <node-files value="/home/mayank/Documents/flow/flow/core/kernel/network/debug/net/merge_20200531-0153521590870232.929842.nod.xml"/>
        <edge-files value="/home/mayank/Documents/flow/flow/core/kernel/network/debug/net/merge_20200531-0153521590870232.929842.edg.xml"/>
        <type-files value="/home/mayank/Documents/flow/flow/core/kernel/network/debug/net/merge_20200531-0153521590870232.929842.typ.xml"/>
    </input>

    <output>
        <output-file value="/home/mayank/Documents/flow/flow/core/kernel/network/debug/cfg/merge_20200531-0153521590870232.929842.net.xml"/>
    </output>

    <junctions>
        <no-internal-links value="false"/>
        <no-turnarounds value="true"/>
    </junctions>

</configuration>
-->

<net version="1.1" junctionCornerDetail="5" limitTurnSpeed="5.50" xmlns:xsi="http://www.w3.org/2001/XMLSchema-instance" xsi:noNamespaceSchemaLocation="http://sumo.dlr.de/xsd/net_file.xsd">

    <location netOffset="100.00,0.00" convBoundary="0.00,0.00,200.00,0.00" origBoundary="-100.00,0.00,100.00,0.00" projParameter="!"/>

    <type id="highwayType" numLanes="5" speed="30.00"/>

    <edge id=":centre_0" function="internal">
        <lane id=":centre_0_0" index="0" speed="30.00" length="0.10" shape="100.00,-14.40 100.00,-14.40"/>
        <lane id=":centre_0_1" index="1" speed="30.00" length="0.10" shape="100.00,-11.20 100.00,-11.20"/>
        <lane id=":centre_0_2" index="2" speed="30.00" length="0.10" shape="100.00,-8.00 100.00,-8.00"/>
        <lane id=":centre_0_3" index="3" speed="30.00" length="0.10" shape="100.00,-4.80 100.00,-4.80"/>
        <lane id=":centre_0_4" index="4" speed="30.00" length="0.10" shape="100.00,-1.60 100.00,-1.60"/>
    </edge>

    <edge id="highway_0" from="inflow_highway" to="centre" priority="-1" type="highwayType" length="100.00">
        <lane id="highway_0_0" index="0" speed="30.00" length="100.00" shape="0.00,-14.40 100.00,-14.40"/>
        <lane id="highway_0_1" index="1" speed="30.00" length="100.00" shape="0.00,-11.20 100.00,-11.20"/>
        <lane id="highway_0_2" index="2" speed="30.00" length="100.00" shape="0.00,-8.00 100.00,-8.00"/>
        <lane id="highway_0_3" index="3" speed="30.00" length="100.00" shape="0.00,-4.80 100.00,-4.80"/>
        <lane id="highway_0_4" index="4" speed="30.00" length="100.00" shape="0.00,-1.60 100.00,-1.60"/>
    </edge>
    <edge id="highway_1" from="centre" to="right" priority="-1" type="highwayType" length="100.00">
        <lane id="highway_1_0" index="0" speed="30.00" length="100.00" shape="100.00,-14.40 200.00,-14.40"/>
        <lane id="highway_1_1" index="1" speed="30.00" length="100.00" shape="100.00,-11.20 200.00,-11.20"/>
        <lane id="highway_1_2" index="2" speed="30.00" length="100.00" shape="100.00,-8.00 200.00,-8.00"/>
        <lane id="highway_1_3" index="3" speed="30.00" length="100.00" shape="100.00,-4.80 200.00,-4.80"/>
        <lane id="highway_1_4" index="4" speed="30.00" length="100.00" shape="100.00,-1.60 200.00,-1.60"/>
    </edge>

    <junction id="centre" type="priority" x="100.00" y="0.00" incLanes="highway_0_0 highway_0_1 highway_0_2 highway_0_3 highway_0_4" intLanes=":centre_0_0 :centre_0_1 :centre_0_2 :centre_0_3 :centre_0_4" shape="100.00,0.00 100.00,-16.00 100.00,0.00">
        <request index="0" response="00000" foes="00000" cont="0"/>
        <request index="1" response="00000" foes="00000" cont="0"/>
        <request index="2" response="00000" foes="00000" cont="0"/>
        <request index="3" response="00000" foes="00000" cont="0"/>
        <request index="4" response="00000" foes="00000" cont="0"/>
    </junction>
    <junction id="inflow_highway" type="dead_end" x="0.00" y="0.00" incLanes="" intLanes="" shape="0.00,0.00 0.00,-16.00"/>
    <junction id="right" type="dead_end" x="200.00" y="0.00" incLanes="highway_1_0 highway_1_1 highway_1_2 highway_1_3 highway_1_4" intLanes="" shape="200.00,-16.00 200.00,0.00"/>

    <connection from="highway_0" to="highway_1" fromLane="0" toLane="0" via=":centre_0_0" dir="s" state="M"/>
    <connection from="highway_0" to="highway_1" fromLane="1" toLane="1" via=":centre_0_1" dir="s" state="M"/>
    <connection from="highway_0" to="highway_1" fromLane="2" toLane="2" via=":centre_0_2" dir="s" state="M"/>
    <connection from="highway_0" to="highway_1" fromLane="3" toLane="3" via=":centre_0_3" dir="s" state="M"/>
    <connection from="highway_0" to="highway_1" fromLane="4" toLane="4" via=":centre_0_4" dir="s" state="M"/>

    <connection from=":centre_0" to="highway_1" fromLane="0" toLane="0" dir="s" state="M"/>
    <connection from=":centre_0" to="highway_1" fromLane="1" toLane="1" dir="s" state="M"/>
    <connection from=":centre_0" to="highway_1" fromLane="2" toLane="2" dir="s" state="M"/>
    <connection from=":centre_0" to="highway_1" fromLane="3" toLane="3" dir="s" state="M"/>
    <connection from=":centre_0" to="highway_1" fromLane="4" toLane="4" dir="s" state="M"/>

</net>
