<?xml version="1.0" encoding="UTF-8"?>

<!-- generated on Sun May 31 21:58:51 2020 by Eclipse SUMO netconvert Version v1_1_0+0000-2147d155b1
<configuration xmlns:xsi="http://www.w3.org/2001/XMLSchema-instance" xsi:noNamespaceSchemaLocation="http://sumo.dlr.de/xsd/netconvertConfiguration.xsd">

    <input>
        <node-files value="/home/mayank/Documents/flow/flow/core/kernel/network/debug/net/merge_20200531-2158511590942531.243978.nod.xml"/>
        <edge-files value="/home/mayank/Documents/flow/flow/core/kernel/network/debug/net/merge_20200531-2158511590942531.243978.edg.xml"/>
        <type-files value="/home/mayank/Documents/flow/flow/core/kernel/network/debug/net/merge_20200531-2158511590942531.243978.typ.xml"/>
    </input>

    <output>
        <output-file value="/home/mayank/Documents/flow/flow/core/kernel/network/debug/cfg/merge_20200531-2158511590942531.243978.net.xml"/>
    </output>

    <junctions>
        <no-internal-links value="false"/>
        <no-turnarounds value="true"/>
    </junctions>

</configuration>
-->

<net version="1.1" junctionCornerDetail="5" limitTurnSpeed="5.50" xmlns:xsi="http://www.w3.org/2001/XMLSchema-instance" xsi:noNamespaceSchemaLocation="http://sumo.dlr.de/xsd/net_file.xsd">

    <location netOffset="400.00,70.71" convBoundary="0.00,0.00,800.00,141.42" origBoundary="-400.00,-70.71,400.00,70.71" projParameter="!"/>

    <type id="highwayType" numLanes="5" speed="30.00"/>
    <type id="mergeType" numLanes="3" speed="30.00"/>

    <edge id=":node_2_0" function="internal">
        <lane id=":node_2_0_0" index="0" speed="12.47" length="14.39" shape="188.49,47.88 191.24,51.24 193.11,53.91 195.35,55.67 199.23,56.31"/>
    </edge>
    <edge id=":node_2_1" function="internal">
        <lane id=":node_2_1_0" index="0" speed="13.47" length="16.85" shape="186.22,50.14 189.52,54.00 191.85,56.95 194.62,58.84 199.23,59.51"/>
    </edge>
    <edge id=":node_2_2" function="internal">
        <lane id=":node_2_2_0" index="0" speed="14.41" length="19.34" shape="183.96,52.41 187.80,56.77 190.58,60.00 193.88,62.02 199.23,62.71"/>
    </edge>
    <edge id=":node_2_3" function="internal">
        <lane id=":node_2_3_0" index="0" speed="30.00" length="16.89" shape="182.34,56.31 199.23,56.31"/>
        <lane id=":node_2_3_1" index="1" speed="30.00" length="16.89" shape="182.34,59.51 199.23,59.51"/>
        <lane id=":node_2_3_2" index="2" speed="30.00" length="16.89" shape="182.34,62.71 199.23,62.71"/>
        <lane id=":node_2_3_3" index="3" speed="30.00" length="16.89" shape="182.34,65.91 199.23,65.91"/>
        <lane id=":node_2_3_4" index="4" speed="30.00" length="16.89" shape="182.34,69.11 199.23,69.11"/>
    </edge>
    <edge id=":node_3_0" function="internal">
        <lane id=":node_3_0_0" index="0" speed="30.00" length="0.10" shape="400.00,56.31 400.00,56.31"/>
        <lane id=":node_3_0_1" index="1" speed="30.00" length="0.10" shape="400.00,59.51 400.00,59.51"/>
        <lane id=":node_3_0_2" index="2" speed="30.00" length="0.10" shape="400.00,62.71 400.00,62.71"/>
        <lane id=":node_3_0_3" index="3" speed="30.00" length="0.10" shape="400.00,65.91 400.00,65.91"/>
        <lane id=":node_3_0_4" index="4" speed="30.00" length="0.10" shape="400.00,69.11 400.00,69.11"/>
    </edge>
    <edge id=":node_5_0" function="internal">
        <lane id=":node_5_0_0" index="0" speed="30.00" length="16.89" shape="584.77,56.31 601.66,56.31"/>
        <lane id=":node_5_0_1" index="1" speed="30.00" length="16.89" shape="584.77,59.51 601.66,59.51"/>
        <lane id=":node_5_0_2" index="2" speed="30.00" length="16.89" shape="584.77,62.71 601.66,62.71"/>
        <lane id=":node_5_0_3" index="3" speed="30.00" length="16.89" shape="584.77,65.91 601.66,65.91"/>
        <lane id=":node_5_0_4" index="4" speed="30.00" length="16.89" shape="584.77,69.11 601.66,69.11"/>
    </edge>
    <edge id=":node_5_5" function="internal">
        <lane id=":node_5_5_0" index="0" speed="14.81" length="20.46" shape="586.38,73.01 592.40,67.11 596.95,62.89 600.04,60.35 601.66,59.51"/>
    </edge>
    <edge id=":node_5_6" function="internal">
        <lane id=":node_5_6_0" index="0" speed="13.95" length="18.11" shape="588.65,75.28 590.84,73.01 595.04,68.73 599.30,64.57 601.66,62.71"/>
    </edge>
    <edge id=":node_5_7" function="internal">
        <lane id=":node_5_7_0" index="0" speed="13.08" length="15.86" shape="590.91,77.54 592.75,75.42 596.17,71.46 599.66,67.63 601.66,65.91"/>
    </edge>
    <edge id=":node_5_8" function="internal">
        <lane id=":node_5_8_0" index="0" speed="12.22" length="13.79" shape="590.91,77.54 594.74,73.85 597.81,71.22 600.12,69.64 601.66,69.11"/>
    </edge>

    <edge id="highway_0" from="node_1" to="node_2" priority="-1" type="highwayType" length="200.00">
        <lane id="highway_0_0" index="0" speed="30.00" length="200.00" shape="0.00,56.31 182.34,56.31"/>
        <lane id="highway_0_1" index="1" speed="30.00" length="200.00" shape="0.00,59.51 182.34,59.51"/>
        <lane id="highway_0_2" index="2" speed="30.00" length="200.00" shape="0.00,62.71 182.34,62.71"/>
        <lane id="highway_0_3" index="3" speed="30.00" length="200.00" shape="0.00,65.91 182.34,65.91"/>
        <lane id="highway_0_4" index="4" speed="30.00" length="200.00" shape="0.00,69.11 182.34,69.11"/>
    </edge>
    <edge id="highway_1" from="node_2" to="node_3" priority="-1" type="highwayType" length="200.00">
        <lane id="highway_1_0" index="0" speed="30.00" length="200.00" shape="199.23,56.31 400.00,56.31"/>
        <lane id="highway_1_1" index="1" speed="30.00" length="200.00" shape="199.23,59.51 400.00,59.51"/>
        <lane id="highway_1_2" index="2" speed="30.00" length="200.00" shape="199.23,62.71 400.00,62.71"/>
        <lane id="highway_1_3" index="3" speed="30.00" length="200.00" shape="199.23,65.91 400.00,65.91"/>
        <lane id="highway_1_4" index="4" speed="30.00" length="200.00" shape="199.23,69.11 400.00,69.11"/>
    </edge>
    <edge id="highway_2" from="node_3" to="node_5" priority="-1" type="highwayType" length="200.00">
        <lane id="highway_2_0" index="0" speed="30.00" length="200.00" shape="400.00,56.31 584.77,56.31"/>
        <lane id="highway_2_1" index="1" speed="30.00" length="200.00" shape="400.00,59.51 584.77,59.51"/>
        <lane id="highway_2_2" index="2" speed="30.00" length="200.00" shape="400.00,62.71 584.77,62.71"/>
        <lane id="highway_2_3" index="3" speed="30.00" length="200.00" shape="400.00,65.91 584.77,65.91"/>
        <lane id="highway_2_4" index="4" speed="30.00" length="200.00" shape="400.00,69.11 584.77,69.11"/>
    </edge>
    <edge id="highway_3" from="node_5" to="node_6" priority="-1" type="highwayType" length="200.00">
        <lane id="highway_3_0" index="0" speed="30.00" length="200.00" acceleration="1" shape="601.66,56.31 800.00,56.31"/>
        <lane id="highway_3_1" index="1" speed="30.00" length="200.00" acceleration="1" shape="601.66,59.51 800.00,59.51"/>
        <lane id="highway_3_2" index="2" speed="30.00" length="200.00" shape="601.66,62.71 800.00,62.71"/>
        <lane id="highway_3_3" index="3" speed="30.00" length="200.00" shape="601.66,65.91 800.00,65.91"/>
        <lane id="highway_3_4" index="4" speed="30.00" length="200.00" shape="601.66,69.11 800.00,69.11"/>
    </edge>
    <edge id="merge_one" from="node_4" to="node_2" priority="-1" type="mergeType" length="100.00">
        <lane id="merge_one_0" index="0" speed="30.00" length="100.00" shape="134.95,-5.66 188.49,47.88"/>
        <lane id="merge_one_1" index="1" speed="30.00" length="100.00" shape="132.68,-3.39 186.22,50.14"/>
        <lane id="merge_one_2" index="2" speed="30.00" length="100.00" shape="130.42,-1.13 183.96,52.41"/>
    </edge>
    <edge id="merge_two" from="node_7" to="node_5" priority="-1" type="mergeType" length="100.00">
        <lane id="merge_two_0" index="0" speed="30.00" length="100.00" shape="523.63,135.76 586.38,73.01"/>
        <lane id="merge_two_1" index="1" speed="30.00" length="100.00" shape="525.90,138.03 588.65,75.28"/>
        <lane id="merge_two_2" index="2" speed="30.00" length="100.00" shape="528.16,140.29 590.91,77.54"/>
    </edge>

    <junction id="node_1" type="dead_end" x="0.00" y="70.71" incLanes="" intLanes="" shape="0.00,70.71 0.00,54.71"/>
    <junction id="node_2" type="priority" x="200.00" y="70.71" incLanes="merge_one_0 merge_one_1 merge_one_2 highway_0_0 highway_0_1 highway_0_2 highway_0_3 highway_0_4" intLanes=":node_2_0_0 :node_2_1_0 :node_2_2_0 :node_2_3_0 :node_2_3_1 :node_2_3_2 :node_2_3_3 :node_2_3_4" shape="199.23,70.71 199.23,54.71 196.66,54.43 194.95,53.63 193.74,52.39 192.68,50.78 191.43,48.87 189.62,46.75 182.83,53.54 183.30,54.19 183.29,54.42 183.13,54.58 182.82,54.68 182.34,54.71 182.34,70.71">
        <request index="0" response="11111000" foes="11111000" cont="0"/>
        <request index="1" response="11111000" foes="11111000" cont="0"/>
        <request index="2" response="11111000" foes="11111000" cont="0"/>
        <request index="3" response="00000000" foes="00000111" cont="0"/>
        <request index="4" response="00000000" foes="00000111" cont="0"/>
        <request index="5" response="00000000" foes="00000111" cont="0"/>
        <request index="6" response="00000000" foes="00000111" cont="0"/>
        <request index="7" response="00000000" foes="00000111" cont="0"/>
    </junction>
    <junction id="node_3" type="priority" x="400.00" y="70.71" incLanes="highway_1_0 highway_1_1 highway_1_2 highway_1_3 highway_1_4" intLanes=":node_3_0_0 :node_3_0_1 :node_3_0_2 :node_3_0_3 :node_3_0_4" shape="400.00,70.71 400.00,54.71 400.00,70.71">
        <request index="0" response="00000" foes="00000" cont="0"/>
        <request index="1" response="00000" foes="00000" cont="0"/>
        <request index="2" response="00000" foes="00000" cont="0"/>
        <request index="3" response="00000" foes="00000" cont="0"/>
        <request index="4" response="00000" foes="00000" cont="0"/>
    </junction>
    <junction id="node_4" type="dead_end" x="129.29" y="0.00" incLanes="" intLanes="" shape="129.29,0.00 136.08,-6.79"/>
    <junction id="node_5" type="priority" x="600.00" y="70.71" incLanes="highway_2_0 highway_2_1 highway_2_2 highway_2_3 highway_2_4 merge_two_0 merge_two_1 merge_two_2" intLanes=":node_5_0_0 :node_5_0_1 :node_5_0_2 :node_5_0_3 :node_5_0_4 :node_5_5_0 :node_5_6_0 :node_5_7_0 :node_5_8_0" shape="601.66,70.71 601.66,54.71 584.77,54.71 584.77,70.71 585.56,70.84 585.72,71.00 585.72,71.23 585.56,71.52 585.25,71.88 592.04,78.67 594.52,76.24 596.65,74.25 598.42,72.70 599.85,71.60 600.93,70.93">
        <request index="0" response="000000000" foes="111100000" cont="0"/>
        <request index="1" response="000000000" foes="111100000" cont="0"/>
        <request index="2" response="000000000" foes="111100000" cont="0"/>
        <request index="3" response="000000000" foes="111100000" cont="0"/>
        <request index="4" response="000000000" foes="111100000" cont="0"/>
        <request index="5" response="000011111" foes="000011111" cont="0"/>
        <request index="6" response="000011111" foes="000011111" cont="0"/>
        <request index="7" response="000011111" foes="000011111" cont="0"/>
        <request index="8" response="000011111" foes="000011111" cont="0"/>
    </junction>
    <junction id="node_6" type="dead_end" x="800.00" y="70.71" incLanes="highway_3_0 highway_3_1 highway_3_2 highway_3_3 highway_3_4" intLanes="" shape="800.00,54.71 800.00,70.71"/>
    <junction id="node_7" type="dead_end" x="529.29" y="141.42" incLanes="" intLanes="" shape="529.29,141.42 522.50,134.63"/>

    <connection from="highway_0" to="highway_1" fromLane="0" toLane="0" via=":node_2_3_0" dir="s" state="M"/>
    <connection from="highway_0" to="highway_1" fromLane="1" toLane="1" via=":node_2_3_1" dir="s" state="M"/>
    <connection from="highway_0" to="highway_1" fromLane="2" toLane="2" via=":node_2_3_2" dir="s" state="M"/>
    <connection from="highway_0" to="highway_1" fromLane="3" toLane="3" via=":node_2_3_3" dir="s" state="M"/>
    <connection from="highway_0" to="highway_1" fromLane="4" toLane="4" via=":node_2_3_4" dir="s" state="M"/>
    <connection from="highway_1" to="highway_2" fromLane="0" toLane="0" via=":node_3_0_0" dir="s" state="M"/>
    <connection from="highway_1" to="highway_2" fromLane="1" toLane="1" via=":node_3_0_1" dir="s" state="M"/>
    <connection from="highway_1" to="highway_2" fromLane="2" toLane="2" via=":node_3_0_2" dir="s" state="M"/>
    <connection from="highway_1" to="highway_2" fromLane="3" toLane="3" via=":node_3_0_3" dir="s" state="M"/>
    <connection from="highway_1" to="highway_2" fromLane="4" toLane="4" via=":node_3_0_4" dir="s" state="M"/>
    <connection from="highway_2" to="highway_3" fromLane="0" toLane="0" via=":node_5_0_0" dir="s" state="M"/>
    <connection from="highway_2" to="highway_3" fromLane="1" toLane="1" via=":node_5_0_1" dir="s" state="M"/>
    <connection from="highway_2" to="highway_3" fromLane="2" toLane="2" via=":node_5_0_2" dir="s" state="M"/>
    <connection from="highway_2" to="highway_3" fromLane="3" toLane="3" via=":node_5_0_3" dir="s" state="M"/>
    <connection from="highway_2" to="highway_3" fromLane="4" toLane="4" via=":node_5_0_4" dir="s" state="M"/>
    <connection from="merge_one" to="highway_1" fromLane="0" toLane="0" via=":node_2_0_0" dir="r" state="m"/>
    <connection from="merge_one" to="highway_1" fromLane="1" toLane="1" via=":node_2_1_0" dir="r" state="m"/>
    <connection from="merge_one" to="highway_1" fromLane="2" toLane="2" via=":node_2_2_0" dir="r" state="m"/>
    <connection from="merge_two" to="highway_3" fromLane="0" toLane="1" via=":node_5_5_0" dir="l" state="m"/>
    <connection from="merge_two" to="highway_3" fromLane="1" toLane="2" via=":node_5_6_0" dir="l" state="m"/>
    <connection from="merge_two" to="highway_3" fromLane="2" toLane="3" via=":node_5_7_0" dir="l" state="m"/>
    <connection from="merge_two" to="highway_3" fromLane="2" toLane="4" via=":node_5_8_0" dir="l" state="m"/>

    <connection from=":node_2_0" to="highway_1" fromLane="0" toLane="0" dir="r" state="M"/>
    <connection from=":node_2_1" to="highway_1" fromLane="0" toLane="1" dir="r" state="M"/>
    <connection from=":node_2_2" to="highway_1" fromLane="0" toLane="2" dir="r" state="M"/>
    <connection from=":node_2_3" to="highway_1" fromLane="0" toLane="0" dir="s" state="M"/>
    <connection from=":node_2_3" to="highway_1" fromLane="1" toLane="1" dir="s" state="M"/>
    <connection from=":node_2_3" to="highway_1" fromLane="2" toLane="2" dir="s" state="M"/>
    <connection from=":node_2_3" to="highway_1" fromLane="3" toLane="3" dir="s" state="M"/>
    <connection from=":node_2_3" to="highway_1" fromLane="4" toLane="4" dir="s" state="M"/>
    <connection from=":node_3_0" to="highway_2" fromLane="0" toLane="0" dir="s" state="M"/>
    <connection from=":node_3_0" to="highway_2" fromLane="1" toLane="1" dir="s" state="M"/>
    <connection from=":node_3_0" to="highway_2" fromLane="2" toLane="2" dir="s" state="M"/>
    <connection from=":node_3_0" to="highway_2" fromLane="3" toLane="3" dir="s" state="M"/>
    <connection from=":node_3_0" to="highway_2" fromLane="4" toLane="4" dir="s" state="M"/>
    <connection from=":node_5_0" to="highway_3" fromLane="0" toLane="0" dir="s" state="M"/>
    <connection from=":node_5_0" to="highway_3" fromLane="1" toLane="1" dir="s" state="M"/>
    <connection from=":node_5_0" to="highway_3" fromLane="2" toLane="2" dir="s" state="M"/>
    <connection from=":node_5_0" to="highway_3" fromLane="3" toLane="3" dir="s" state="M"/>
    <connection from=":node_5_0" to="highway_3" fromLane="4" toLane="4" dir="s" state="M"/>
    <connection from=":node_5_5" to="highway_3" fromLane="0" toLane="1" dir="l" state="M"/>
    <connection from=":node_5_6" to="highway_3" fromLane="0" toLane="2" dir="l" state="M"/>
    <connection from=":node_5_7" to="highway_3" fromLane="0" toLane="3" dir="l" state="M"/>
    <connection from=":node_5_8" to="highway_3" fromLane="0" toLane="4" dir="l" state="M"/>

</net>
