<?xml version='1.0' encoding='UTF-8'?>
<routes xmlns:xsi="http://www.w3.org/2001/XMLSchema-instance" xsi:noNamespaceSchemaLocation="http://sumo.dlr.de/xsd/routes_file.xsd">
  <route id="routehighway_0_0" edges="highway_0 highway_1"/>
  <route id="routehighway_1_0" edges="highway_1"/>
  <route id="routemerge_one_0" edges="merge_one highway_1"/>
  <flow id="flow_00" route="routehighway_0_0" type="human" departLane="random" departSpeed="random" begin="1" end="86400" probability="0.5"/>
  <flow id="flow_10" route="routemerge_one_0" type="human" departLane="random" departSpeed="random" begin="1" end="86400" probability="0.5"/>
</routes>
