<?xml version='1.0' encoding='UTF-8'?>
<routes xmlns:xsi="http://www.w3.org/2001/XMLSchema-instance" xsi:noNamespaceSchemaLocation="http://sumo.dlr.de/xsd/routes_file.xsd">
  <route id="routeinflow_highway_0" edges="inflow_highway right"/>
  <flow id="flow_00" route="routeinflow_highway_0" type="human" departLane="random" departSpeed="random" begin="1" end="86400" probability="0.1"/>
</routes>
