<?xml version='1.0' encoding='UTF-8'?>
<configuration xmlns:xsi="http://www.w3.org/2001/XMLSchema-instance" xsi:noNamespaceSchemaLocation="http://sumo.dlr.de/xsd/sumoConfiguration.xsd">
  <input>
    <net-file value="merge_20200602-0002191591036339.989517.net.xml"/>
    <route-files value="merge_20200602-0002191591036339.989517.rou.xml"/>
    <additional-files value="merge_20200602-0002191591036339.989517.add.xml"/>
    <gui-settings-file value="merge_20200602-0002191591036339.989517.gui.cfg"/>
  </input>
  <time>
    <begin value="0"/>
  </time>
</configuration>
