<?xml version='1.0' encoding='UTF-8'?>
<configuration xmlns:xsi="http://www.w3.org/2001/XMLSchema-instance" xsi:noNamespaceSchemaLocation="http://sumo.dlr.de/xsd/sumoConfiguration.xsd">
  <input>
    <net-file value="ringNetwork_20200529-1511241590745284.0421312.net.xml"/>
    <route-files value="ringNetwork_20200529-1511241590745284.0421312.rou.xml"/>
    <additional-files value="ringNetwork_20200529-1511241590745284.0421312.add.xml"/>
    <gui-settings-file value="ringNetwork_20200529-1511241590745284.0421312.gui.cfg"/>
  </input>
  <time>
    <begin value="0"/>
  </time>
</configuration>
