<?xml version='1.0' encoding='UTF-8'?>
<configuration xmlns:xsi="http://www.w3.org/2001/XMLSchema-instance" xsi:noNamespaceSchemaLocation="http://sumo.dlr.de/xsd/sumoConfiguration.xsd">
  <input>
    <net-file value="ringNetwork_20200529-1721071590753067.8497813.net.xml"/>
    <route-files value="ringNetwork_20200529-1721071590753067.8497813.rou.xml"/>
    <additional-files value="ringNetwork_20200529-1721071590753067.8497813.add.xml"/>
    <gui-settings-file value="ringNetwork_20200529-1721071590753067.8497813.gui.cfg"/>
  </input>
  <time>
    <begin value="0"/>
  </time>
</configuration>
