<?xml version='1.0' encoding='UTF-8'?>
<configuration xmlns:xsi="http://www.w3.org/2001/XMLSchema-instance" xsi:noNamespaceSchemaLocation="http://sumo.dlr.de/xsd/sumoConfiguration.xsd">
  <input>
    <net-file value="twoInMergesNetwork_20200604-0156491591216009.7057216.net.xml"/>
    <route-files value="twoInMergesNetwork_20200604-0156491591216009.7057216.rou.xml"/>
    <additional-files value="twoInMergesNetwork_20200604-0156491591216009.7057216.add.xml"/>
    <gui-settings-file value="twoInMergesNetwork_20200604-0156491591216009.7057216.gui.cfg"/>
  </input>
  <time>
    <begin value="0"/>
  </time>
</configuration>
