<?xml version='1.0' encoding='UTF-8'?>
<configuration xmlns:xsi="http://www.w3.org/2001/XMLSchema-instance" xsi:noNamespaceSchemaLocation="http://sumo.dlr.de/xsd/netconvertConfiguration.xsd">
  <input>
    <node-files value="merge_20200531-2142041590941524.4434998.nod.xml"/>
    <edge-files value="merge_20200531-2142041590941524.4434998.edg.xml"/>
    <type-files value="merge_20200531-2142041590941524.4434998.typ.xml"/>
  </input>
  <output>
    <output-file value="merge_20200531-2142041590941524.4434998.net.xml"/>
  </output>
  <processing>
    <no-internal-links value="false"/>
    <no-turnarounds value="true"/>
  </processing>
</configuration>
