<?xml version='1.0' encoding='UTF-8'?>
<types xmlns:xsi="http://www.w3.org/2001/XMLSchema-instance" xsi:noNamespaceSchemaLocation="http://sumo.dlr.de/xsd/types_file.xsd">
  <type id="highwayType" numLanes="4" speed="30"/>
  <type id="mergeType" numLanes="3" speed="30"/>
</types>
