<?xml version='1.0' encoding='UTF-8'?>
<configuration xmlns:xsi="http://www.w3.org/2001/XMLSchema-instance" xsi:noNamespaceSchemaLocation="http://sumo.dlr.de/xsd/netconvertConfiguration.xsd">
  <input>
    <node-files value="merge_20200602-1831241591102884.4611406.nod.xml"/>
    <edge-files value="merge_20200602-1831241591102884.4611406.edg.xml"/>
    <type-files value="merge_20200602-1831241591102884.4611406.typ.xml"/>
  </input>
  <output>
    <output-file value="merge_20200602-1831241591102884.4611406.net.xml"/>
  </output>
  <processing>
    <no-internal-links value="false"/>
    <no-turnarounds value="true"/>
  </processing>
</configuration>
