<?xml version='1.0' encoding='UTF-8'?>
<configuration xmlns:xsi="http://www.w3.org/2001/XMLSchema-instance" xsi:noNamespaceSchemaLocation="http://sumo.dlr.de/xsd/netconvertConfiguration.xsd">
  <input>
    <node-files value="twoInMergesNetwork_20200604-0156491591216009.7057216.nod.xml"/>
    <edge-files value="twoInMergesNetwork_20200604-0156491591216009.7057216.edg.xml"/>
    <type-files value="twoInMergesNetwork_20200604-0156491591216009.7057216.typ.xml"/>
  </input>
  <output>
    <output-file value="twoInMergesNetwork_20200604-0156491591216009.7057216.net.xml"/>
  </output>
  <processing>
    <no-internal-links value="false"/>
    <no-turnarounds value="true"/>
  </processing>
</configuration>
